@<TRIPOS>MOLECULE
PRO
   28    30     1     0     0
SMALL
bcc


@<TRIPOS>ATOM
      1 N1          -0.0000     1.0950     0.0000 na       999 PRO      -0.185100
      2 H1           0.0000     2.1090     0.0000 hn       999 PRO       0.318700
      3 N2           4.7960     1.1870    -0.0000 nh       999 PRO      -0.830200
      4 N3          -4.7960     1.1870     0.0000 nh       999 PRO      -0.830200
      5 C1           1.2180    -0.9620    -0.0000 ca       999 PRO      -0.180000
      6 C2          -1.2180    -0.9620    -0.0000 ca       999 PRO      -0.180000
      7 C3           1.2140     0.4630     0.0000 ca       999 PRO       0.159700
      8 C4          -1.2140     0.4630     0.0000 ca       999 PRO       0.159700
      9 C5          -0.0000    -1.6370    -0.0000 ca       999 PRO       0.086000
     10 C6           2.4820    -1.6200    -0.0000 ca       999 PRO      -0.011000
     11 C7          -2.4820    -1.6200    -0.0000 ca       999 PRO      -0.011000
     12 C8           2.4010     1.1900     0.0000 ca       999 PRO      -0.324000
     13 C9          -2.4010     1.1900     0.0000 ca       999 PRO      -0.324000
     14 C10          3.6240     0.5170     0.0000 ca       999 PRO       0.307600
     15 C11         -3.6240     0.5170     0.0000 ca       999 PRO       0.307600
     16 C12          3.6430    -0.9150    -0.0000 ca       999 PRO      -0.207000
     17 C13         -3.6430    -0.9150    -0.0000 ca       999 PRO      -0.207000
     18 H2          -0.0000    -2.7240    -0.0000 ha       999 PRO       0.166000
     19 H3           2.5030    -2.7060    -0.0000 ha       999 PRO       0.161000
     20 H4          -2.5030    -2.7060    -0.0000 ha       999 PRO       0.161000
     21 H5           2.3780     2.2760     0.0000 ha       999 PRO       0.157000
     22 H6          -2.3780     2.2760     0.0000 ha       999 PRO       0.157000
     23 H7           4.5990    -1.4280    -0.0000 ha       999 PRO       0.164000
     24 H8          -4.5990    -1.4280    -0.0000 ha       999 PRO       0.164000
     25 H9           4.8310     2.1960     0.0000 hn       999 PRO       0.455300
     26 H10          5.6800     0.6990     0.0000 hn       999 PRO       0.455300
     27 H11         -4.8310     2.1960     0.0000 hn       999 PRO       0.455300
     28 H12         -5.6800     0.6990     0.0000 hn       999 PRO       0.455300
@<TRIPOS>BOND
     1     1     2 1   
     2     1     7 1   
     3     1     8 2   
     4     3    14 1   
     5     3    25 1   
     6     3    26 1   
     7     4    15 1   
     8     4    27 1   
     9     4    28 1   
    10     5     7 ar  
    11     5     9 ar  
    12     5    10 ar  
    13     6     8 ar  
    14     6     9 ar  
    15     6    11 ar  
    16     7    12 ar  
    17     8    13 ar  
    18     9    18 1   
    19    10    16 ar  
    20    10    19 1   
    21    11    17 ar  
    22    11    20 1   
    23    12    14 ar  
    24    12    21 1   
    25    13    15 ar  
    26    13    22 1   
    27    14    16 ar  
    28    15    17 ar  
    29    16    23 1   
    30    17    24 1   
@<TRIPOS>SUBSTRUCTURE
     1 PRO         1 TEMP              0 ****  ****    0 ROOT
